powerfactory/powerfactory-converter/src/test/resources/CommonImpedanceOnlyImpedance12.xiidm
<?xml version="1.0" encoding="UTF-8"?>
<iidm:network xmlns:iidm="http://www.powsybl.org/schema/iidm/1_17" id="CommonImpedanceOnlyImpedance12" caseDate="2021-01-01T10:00:00.000+02:00" forecastDistance="0" sourceFormat="POWER-FACTORY" minimumValidationLevel="STEADY_STATE_HYPOTHESIS">
    <iidm:substation id="S6">
        <iidm:voltageLevel id="VL6" nominalV="110.0" topologyKind="NODE_BREAKER">
            <iidm:nodeBreakerTopology>
                <iidm:busbarSection id="VL6_1 Bus 1-Slack" node="0"/>
                <iidm:switch id="VL6_Switch" kind="BREAKER" open="false" node1="0" node2="1"/>
                <iidm:switch id="VL6_Switch#0" kind="BREAKER" open="false" node1="0" node2="2"/>
            </iidm:nodeBreakerTopology>
            <iidm:generator id="sym_1_1" energySource="OTHER" minP="0.0" maxP="50.470001220703125" targetP="50.470001220703125" localTargetV="116.59999370574951" localTargetQ="0.0" node="2">
                <iidm:minMaxReactiveLimits minQ="0.0" maxQ="0.0"/>
                <iidm:voltageRegulation mode="VOLTAGE" regulating="true"/>
            </iidm:generator>
        </iidm:voltageLevel>
    </iidm:substation>
    <iidm:substation id="S7">
        <iidm:voltageLevel id="VL7" nominalV="110.0" topologyKind="NODE_BREAKER">
            <iidm:nodeBreakerTopology>
                <iidm:busbarSection id="VL7_2 Bus 2" node="0"/>
                <iidm:switch id="VL7_Switch" kind="BREAKER" open="false" node1="0" node2="1"/>
                <iidm:switch id="VL7_Switch#0" kind="BREAKER" open="false" node1="0" node2="2"/>
            </iidm:nodeBreakerTopology>
        </iidm:voltageLevel>
    </iidm:substation>
    <iidm:substation id="S8">
        <iidm:voltageLevel id="VL8" nominalV="110.0" topologyKind="NODE_BREAKER">
            <iidm:nodeBreakerTopology>
                <iidm:busbarSection id="VL8_3 Bus 2-Load" node="0"/>
                <iidm:switch id="VL8_Switch" kind="BREAKER" open="false" node1="0" node2="1"/>
                <iidm:switch id="VL8_Switch#0" kind="BREAKER" open="false" node1="0" node2="2"/>
            </iidm:nodeBreakerTopology>
            <iidm:load id="lod_3_1" loadType="UNDEFINED" p0="50.0" q0="25.0" node="1"/>
        </iidm:voltageLevel>
    </iidm:substation>
    <iidm:line id="lne_1_2_1" r="31.007963180541992" x="94.67198181152344" b1="1.0815001583099366E-4" b2="1.0815001583099366E-4" node1="1" voltageLevelId1="VL6" node2="1" voltageLevelId2="VL7"/>
    <iidm:line id="zpu_2_3_1" r="-25.51043060620626" x="165.7264362335205" node1="2" voltageLevelId1="VL7" node2="2" voltageLevelId2="VL8"/>
</iidm:network>
